/*--------------------------------*- C++ -*----------------------------------*\
| =========                 |                                                 |
| \\      /  F ield         | OpenFOAM: The Open Source CFD Toolbox           |
|  \\    /   O peration     | Version:  2.4.0                                 |
|   \\  /    A nd           | Web:      www.OpenFOAM.org                      |
|    \\/     M anipulation  |                                                 |
\*---------------------------------------------------------------------------*/
FoamFile
{
    version     2.0;
    format      ascii;
    class       polyBoundaryMesh;
    location    "constant/polyMesh";
    object      boundary;
}
// * * * * * * * * * * * * * * * * * * * * * * * * * * * * * * * * * * * * * //

6
(
    back
    {
        type            empty;
        physicalType    patch;
        nFaces          513;
        startFace       1456;
    }
    front
    {
        type            empty;
        physicalType    patch;
        nFaces          513;
        startFace       1969;
    }
    top
    {
        type            patch;
        physicalType    patch;
        nFaces          21;
        startFace       2482;
    }
    left
    {
        type            patch;
        physicalType    patch;
        nFaces          21;
        startFace       2503;
    }
    bottom
    {
        type            patch;
        physicalType    patch;
        nFaces          21;
        startFace       2524;
    }
    right
    {
        type            patch;
        physicalType    patch;
        nFaces          21;
        startFace       2545;
    }
)

// ************************************************************************* //
